Version 4
SHEET 1 880 680
WIRE 176 64 96 64
WIRE 336 64 240 64
WIRE 96 160 96 64
WIRE 336 208 336 144
WIRE 96 288 96 240
WIRE 288 288 192 288
WIRE 192 304 192 288
WIRE 336 336 336 304
WIRE 192 416 192 384
FLAG 96 288 0
FLAG 336 336 0
FLAG 192 416 0
SYMBOL voltage 96 144 R0
WINDOW 123 0 0 Left 0
WINDOW 39 0 0 Left 0
SYMATTR InstName V1
SYMATTR Value 5
SYMBOL res 320 48 R0
SYMATTR InstName R1
SYMATTR Value 220
SYMBOL diode 176 80 R270
WINDOW 0 32 32 VTop 2
WINDOW 3 0 32 VBottom 2
SYMATTR InstName D1
SYMBOL voltage 192 288 R0
WINDOW 123 0 0 Left 0
WINDOW 39 0 0 Left 0
SYMATTR InstName V2
SYMATTR Value 3.3
SYMBOL nmos 288 208 R0
SYMATTR InstName M1
TEXT 62 440 Left 2 !.tran 1
